* Copyright © Linear Technology Corp. 1998, 1999, 2000.  All rights reserved.
*
.subckt node 1
R1 1 1 0
.ends node
